488
ver.01
C	-0	-10.0882	-4.11847
C	-0	-7.56611	-4.11847
C	-0	-5.04408	-4.11847
C	-0	-2.52204	-4.11847
C	0	0	-4.11847
C	0	2.52204	-4.11847
C	0	5.04408	-4.11847
C	0	7.56611	-4.11847
C	0	10.0882	-4.11847
C	2.18415	-8.82713	-4.11847
C	-2.18415	8.82713	-4.11847
C	2.18415	-6.30509	-4.11847
C	-2.18415	6.30509	-4.11847
C	2.18415	-3.78306	-4.11847
C	-2.18415	3.78306	-4.11847
C	2.18415	-1.26102	-4.11847
C	-2.18415	1.26102	-4.11847
C	2.18415	1.26102	-4.11847
C	-2.18415	-1.26102	-4.11847
C	2.18415	3.78306	-4.11847
C	-2.18415	-3.78306	-4.11847
C	2.18415	6.30509	-4.11847
C	-2.18415	-6.30509	-4.11847
C	2.18415	8.82713	-4.11847
C	-2.18415	-8.82713	-4.11847
C	4.3683	-7.56611	-4.11847
C	-4.3683	7.56611	-4.11847
C	4.3683	-5.04408	-4.11847
C	-4.3683	5.04408	-4.11847
C	4.3683	-2.52204	-4.11847
C	-4.3683	2.52204	-4.11847
C	4.3683	0	-4.11847
C	-4.3683	0	-4.11847
C	4.3683	2.52204	-4.11847
C	-4.3683	-2.52204	-4.11847
C	4.3683	5.04408	-4.11847
C	-4.3683	-5.04408	-4.11847
C	4.3683	7.56611	-4.11847
C	-4.3683	-7.56611	-4.11847
C	6.55245	-6.30509	-4.11847
C	-6.55245	6.30509	-4.11847
C	6.55245	-3.78306	-4.11847
C	-6.55245	3.78306	-4.11847
C	6.55245	-1.26102	-4.11847
C	-6.55245	1.26102	-4.11847
C	6.55245	1.26102	-4.11847
C	-6.55245	-1.26102	-4.11847
C	6.55245	3.78306	-4.11847
C	-6.55245	-3.78306	-4.11847
C	6.55245	6.30509	-4.11847
C	-6.55245	-6.30509	-4.11847
C	8.7366	-5.04408	-4.11847
C	-8.7366	5.04408	-4.11847
C	8.7366	-2.52204	-4.11847
C	-8.7366	2.52204	-4.11847
C	8.7366	0	-4.11847
C	-8.7366	0	-4.11847
C	8.7366	2.52204	-4.11847
C	-8.7366	-2.52204	-4.11847
C	8.7366	5.04408	-4.11847
C	-8.7366	-5.04408	-4.11847
C	0.72805	-8.82713	-2.05924
C	0.72805	-6.30509	-2.05924
C	0.72805	-3.78306	-2.05924
C	0.72805	-1.26102	-2.05924
C	0.72805	1.26102	-2.05924
C	0.72805	3.78306	-2.05924
C	0.72805	6.30509	-2.05924
C	0.72805	8.82713	-2.05924
C	0.72805	11.3492	-2.05924
C	2.9122	-7.56611	-2.05924
C	-1.4561	10.0882	-2.05924
C	2.9122	-5.04408	-2.05924
C	-1.4561	7.56611	-2.05924
C	2.9122	-2.52204	-2.05924
C	-1.4561	5.04408	-2.05924
C	2.9122	-2.22045e-15	-2.05924
C	-1.4561	2.52204	-2.05924
C	2.9122	2.52204	-2.05924
C	-1.4561	2.22045e-15	-2.05924
C	2.9122	5.04408	-2.05924
C	-1.4561	-2.52204	-2.05924
C	2.9122	7.56611	-2.05924
C	-1.4561	-5.04408	-2.05924
C	2.9122	10.0882	-2.05924
C	-1.4561	-7.56611	-2.05924
C	5.09635	-6.30509	-2.05924
C	-3.64025	8.82713	-2.05924
C	5.09635	-3.78306	-2.05924
C	-3.64025	6.30509	-2.05924
C	5.09635	-1.26102	-2.05924
C	-3.64025	3.78306	-2.05924
C	5.09635	1.26102	-2.05924
C	-3.64025	1.26102	-2.05924
C	5.09635	3.78306	-2.05924
C	-3.64025	-1.26102	-2.05924
C	5.09635	6.30509	-2.05924
C	-3.64025	-3.78306	-2.05924
C	5.09635	8.82713	-2.05924
C	-3.64025	-6.30509	-2.05924
C	7.2805	-5.04408	-2.05924
C	-5.8244	7.56611	-2.05924
C	7.2805	-2.52204	-2.05924
C	-5.8244	5.04408	-2.05924
C	7.2805	1.33227e-15	-2.05924
C	-5.8244	2.52204	-2.05924
C	7.2805	2.52204	-2.05924
C	-5.8244	-1.33227e-15	-2.05924
C	7.2805	5.04408	-2.05924
C	-5.8244	-2.52204	-2.05924
C	7.2805	7.56611	-2.05924
C	-5.8244	-5.04408	-2.05924
C	9.46464	-3.78306	-2.05924
C	-8.00855	6.30509	-2.05924
C	9.46464	-1.26102	-2.05924
C	-8.00855	3.78306	-2.05924
C	9.46464	1.26102	-2.05924
C	-8.00855	1.26102	-2.05924
C	9.46464	3.78306	-2.05924
C	-8.00855	-1.26102	-2.05924
C	9.46464	6.30509	-2.05924
C	-8.00855	-3.78306	-2.05924
C	0	-10.0882	0
C	0	-7.56611	0
C	0	-5.04408	0
C	0	-2.52204	0
C	0	0	0
C	0	2.52204	0
C	0	5.04408	0
C	0	7.56611	0
C	0	10.0882	0
C	2.18415	-8.82713	0
C	-2.18415	8.82713	0
C	2.18415	-6.30509	0
C	-2.18415	6.30509	0
C	2.18415	-3.78306	0
C	-2.18415	3.78306	0
C	2.18415	-1.26102	0
C	-2.18415	1.26102	0
C	2.18415	1.26102	0
C	-2.18415	-1.26102	0
C	2.18415	3.78306	0
C	-2.18415	-3.78306	0
C	2.18415	6.30509	0
C	-2.18415	-6.30509	0
C	2.18415	8.82713	0
C	-2.18415	-8.82713	0
C	4.3683	-7.56611	0
C	-4.3683	7.56611	0
C	4.3683	-5.04408	0
C	-4.3683	5.04408	0
C	4.3683	-2.52204	0
C	-4.3683	2.52204	0
C	4.3683	0	0
C	-4.3683	0	0
C	4.3683	2.52204	0
C	-4.3683	-2.52204	0
C	4.3683	5.04408	0
C	-4.3683	-5.04408	0
C	4.3683	7.56611	0
C	-4.3683	-7.56611	0
C	6.55245	-6.30509	0
C	-6.55245	6.30509	0
C	6.55245	-3.78306	0
C	-6.55245	3.78306	0
C	6.55245	-1.26102	0
C	-6.55245	1.26102	0
C	6.55245	1.26102	0
C	-6.55245	-1.26102	0
C	6.55245	3.78306	0
C	-6.55245	-3.78306	0
C	6.55245	6.30509	0
C	-6.55245	-6.30509	0
C	8.7366	-5.04408	0
C	-8.7366	5.04408	0
C	8.7366	-2.52204	0
C	-8.7366	2.52204	0
C	8.7366	0	0
C	-8.7366	0	0
C	8.7366	2.52204	0
C	-8.7366	-2.52204	0
C	8.7366	5.04408	0
C	-8.7366	-5.04408	0
C	1.4561	-10.0882	2.05924
C	1.4561	-7.56611	2.05924
C	1.4561	-5.04408	2.05924
C	1.4561	-2.52204	2.05924
C	1.4561	0	2.05924
C	1.4561	2.52204	2.05924
C	1.4561	5.04408	2.05924
C	1.4561	7.56611	2.05924
C	1.4561	10.0882	2.05924
C	3.64025	-8.82713	2.05924
C	-0.72805	8.82713	2.05924
C	3.64025	-6.30509	2.05924
C	-0.72805	6.30509	2.05924
C	3.64025	-3.78306	2.05924
C	-0.72805	3.78306	2.05924
C	3.64025	-1.26102	2.05924
C	-0.72805	1.26102	2.05924
C	3.64025	1.26102	2.05924
C	-0.72805	-1.26102	2.05924
C	3.64025	3.78306	2.05924
C	-0.72805	-3.78306	2.05924
C	3.64025	6.30509	2.05924
C	-0.72805	-6.30509	2.05924
C	3.64025	8.82713	2.05924
C	-0.72805	-8.82713	2.05924
C	5.8244	-7.56611	2.05924
C	-2.9122	7.56611	2.05924
C	5.8244	-5.04408	2.05924
C	-2.9122	5.04408	2.05924
C	5.8244	-2.52204	2.05924
C	-2.9122	2.52204	2.05924
C	5.8244	0	2.05924
C	-2.9122	0	2.05924
C	5.8244	2.52204	2.05924
C	-2.9122	-2.52204	2.05924
C	5.8244	5.04408	2.05924
C	-2.9122	-5.04408	2.05924
C	5.8244	7.56611	2.05924
C	-2.9122	-7.56611	2.05924
C	8.00855	-6.30509	2.05924
C	-5.09635	6.30509	2.05924
C	8.00855	-3.78306	2.05924
C	-5.09635	3.78306	2.05924
C	8.00855	-1.26102	2.05924
C	-5.09635	1.26102	2.05924
C	8.00855	1.26102	2.05924
C	-5.09635	-1.26102	2.05924
C	8.00855	3.78306	2.05924
C	-5.09635	-3.78306	2.05924
C	8.00855	6.30509	2.05924
C	-5.09635	-6.30509	2.05924
C	10.1927	-5.04408	2.05924
C	-7.2805	5.04408	2.05924
C	10.1927	-2.52204	2.05924
C	-7.2805	2.52204	2.05924
C	10.1927	0	2.05924
C	-7.2805	0	2.05924
C	10.1927	2.52204	2.05924
C	-7.2805	-2.52204	2.05924
C	10.1927	5.04408	2.05924
C	-7.2805	-5.04408	2.05924
C	-0	-10.0882	-2.57404
C	-0	-7.56611	-2.57404
C	-0	-5.04408	-2.57404
C	-0	-2.52204	-2.57404
C	0	0	-2.57404
C	0	2.52204	-2.57404
C	0	5.04408	-2.57404
C	0	7.56611	-2.57404
C	0	10.0882	-2.57404
C	2.18415	-8.82713	-2.57404
C	-2.18415	8.82713	-2.57404
C	2.18415	-6.30509	-2.57404
C	-2.18415	6.30509	-2.57404
C	2.18415	-3.78306	-2.57404
C	-2.18415	3.78306	-2.57404
C	2.18415	-1.26102	-2.57404
C	-2.18415	1.26102	-2.57404
C	2.18415	1.26102	-2.57404
C	-2.18415	-1.26102	-2.57404
C	2.18415	3.78306	-2.57404
C	-2.18415	-3.78306	-2.57404
C	2.18415	6.30509	-2.57404
C	-2.18415	-6.30509	-2.57404
C	2.18415	8.82713	-2.57404
C	-2.18415	-8.82713	-2.57404
C	4.3683	-7.56611	-2.57404
C	-4.3683	7.56611	-2.57404
C	4.3683	-5.04408	-2.57404
C	-4.3683	5.04408	-2.57404
C	4.3683	-2.52204	-2.57404
C	-4.3683	2.52204	-2.57404
C	4.3683	0	-2.57404
C	-4.3683	0	-2.57404
C	4.3683	2.52204	-2.57404
C	-4.3683	-2.52204	-2.57404
C	4.3683	5.04408	-2.57404
C	-4.3683	-5.04408	-2.57404
C	4.3683	7.56611	-2.57404
C	-4.3683	-7.56611	-2.57404
C	6.55245	-6.30509	-2.57404
C	-6.55245	6.30509	-2.57404
C	6.55245	-3.78306	-2.57404
C	-6.55245	3.78306	-2.57404
C	6.55245	-1.26102	-2.57404
C	-6.55245	1.26102	-2.57404
C	6.55245	1.26102	-2.57404
C	-6.55245	-1.26102	-2.57404
C	6.55245	3.78306	-2.57404
C	-6.55245	-3.78306	-2.57404
C	6.55245	6.30509	-2.57404
C	-6.55245	-6.30509	-2.57404
C	8.7366	-5.04408	-2.57404
C	-8.7366	5.04408	-2.57404
C	8.7366	-2.52204	-2.57404
C	-8.7366	2.52204	-2.57404
C	8.7366	0	-2.57404
C	-8.7366	0	-2.57404
C	8.7366	2.52204	-2.57404
C	-8.7366	-2.52204	-2.57404
C	8.7366	5.04408	-2.57404
C	-8.7366	-5.04408	-2.57404
C	0.72805	-8.82713	-0.514809
C	0.72805	-6.30509	-0.514809
C	0.72805	-3.78306	-0.514809
C	0.72805	-1.26102	-0.514809
C	0.72805	1.26102	-0.514809
C	0.72805	3.78306	-0.514809
C	0.72805	6.30509	-0.514809
C	0.72805	8.82713	-0.514809
C	0.72805	11.3492	-0.514809
C	2.9122	-7.56611	-0.514809
C	-1.4561	10.0882	-0.514809
C	2.9122	-5.04408	-0.514809
C	-1.4561	7.56611	-0.514809
C	2.9122	-2.52204	-0.514809
C	-1.4561	5.04408	-0.514809
C	2.9122	-2.22045e-15	-0.514809
C	-1.4561	2.52204	-0.514809
C	2.9122	2.52204	-0.514809
C	-1.4561	2.22045e-15	-0.514809
C	2.9122	5.04408	-0.514809
C	-1.4561	-2.52204	-0.514809
C	2.9122	7.56611	-0.514809
C	-1.4561	-5.04408	-0.514809
C	2.9122	10.0882	-0.514809
C	-1.4561	-7.56611	-0.514809
C	5.09635	-6.30509	-0.514809
C	-3.64025	8.82713	-0.514809
C	5.09635	-3.78306	-0.514809
C	-3.64025	6.30509	-0.514809
C	5.09635	-1.26102	-0.514809
C	-3.64025	3.78306	-0.514809
C	5.09635	1.26102	-0.514809
C	-3.64025	1.26102	-0.514809
C	5.09635	3.78306	-0.514809
C	-3.64025	-1.26102	-0.514809
C	5.09635	6.30509	-0.514809
C	-3.64025	-3.78306	-0.514809
C	5.09635	8.82713	-0.514809
C	-3.64025	-6.30509	-0.514809
C	7.2805	-5.04408	-0.514809
C	-5.8244	7.56611	-0.514809
C	7.2805	-2.52204	-0.514809
C	-5.8244	5.04408	-0.514809
C	7.2805	1.33227e-15	-0.514809
C	-5.8244	2.52204	-0.514809
C	7.2805	2.52204	-0.514809
C	-5.8244	-1.33227e-15	-0.514809
C	7.2805	5.04408	-0.514809
C	-5.8244	-2.52204	-0.514809
C	7.2805	7.56611	-0.514809
C	-5.8244	-5.04408	-0.514809
C	9.46464	-3.78306	-0.514809
C	-8.00855	6.30509	-0.514809
C	9.46464	-1.26102	-0.514809
C	-8.00855	3.78306	-0.514809
C	9.46464	1.26102	-0.514809
C	-8.00855	1.26102	-0.514809
C	9.46464	3.78306	-0.514809
C	-8.00855	-1.26102	-0.514809
C	9.46464	6.30509	-0.514809
C	-8.00855	-3.78306	-0.514809
C	0	-10.0882	1.54443
C	0	-7.56611	1.54443
C	0	-5.04408	1.54443
C	0	-2.52204	1.54443
C	0	0	1.54443
C	0	2.52204	1.54443
C	0	5.04408	1.54443
C	0	7.56611	1.54443
C	0	10.0882	1.54443
C	2.18415	-8.82713	1.54443
C	-2.18415	8.82713	1.54443
C	2.18415	-6.30509	1.54443
C	-2.18415	6.30509	1.54443
C	2.18415	-3.78306	1.54443
C	-2.18415	3.78306	1.54443
C	2.18415	-1.26102	1.54443
C	-2.18415	1.26102	1.54443
C	2.18415	1.26102	1.54443
C	-2.18415	-1.26102	1.54443
C	2.18415	3.78306	1.54443
C	-2.18415	-3.78306	1.54443
C	2.18415	6.30509	1.54443
C	-2.18415	-6.30509	1.54443
C	2.18415	8.82713	1.54443
C	-2.18415	-8.82713	1.54443
C	4.3683	-7.56611	1.54443
C	-4.3683	7.56611	1.54443
C	4.3683	-5.04408	1.54443
C	-4.3683	5.04408	1.54443
C	4.3683	-2.52204	1.54443
C	-4.3683	2.52204	1.54443
C	4.3683	0	1.54443
C	-4.3683	0	1.54443
C	4.3683	2.52204	1.54443
C	-4.3683	-2.52204	1.54443
C	4.3683	5.04408	1.54443
C	-4.3683	-5.04408	1.54443
C	4.3683	7.56611	1.54443
C	-4.3683	-7.56611	1.54443
C	6.55245	-6.30509	1.54443
C	-6.55245	6.30509	1.54443
C	6.55245	-3.78306	1.54443
C	-6.55245	3.78306	1.54443
C	6.55245	-1.26102	1.54443
C	-6.55245	1.26102	1.54443
C	6.55245	1.26102	1.54443
C	-6.55245	-1.26102	1.54443
C	6.55245	3.78306	1.54443
C	-6.55245	-3.78306	1.54443
C	6.55245	6.30509	1.54443
C	-6.55245	-6.30509	1.54443
C	8.7366	-5.04408	1.54443
C	-8.7366	5.04408	1.54443
C	8.7366	-2.52204	1.54443
C	-8.7366	2.52204	1.54443
C	8.7366	0	1.54443
C	-8.7366	0	1.54443
C	8.7366	2.52204	1.54443
C	-8.7366	-2.52204	1.54443
C	8.7366	5.04408	1.54443
C	-8.7366	-5.04408	1.54443
C	1.4561	-10.0882	3.60366
C	1.4561	-7.56611	3.60366
C	1.4561	-5.04408	3.60366
C	1.4561	-2.52204	3.60366
C	1.4561	0	3.60366
C	1.4561	2.52204	3.60366
C	1.4561	5.04408	3.60366
C	1.4561	7.56611	3.60366
C	1.4561	10.0882	3.60366
C	3.64025	-8.82713	3.60366
C	-0.72805	8.82713	3.60366
C	3.64025	-6.30509	3.60366
C	-0.72805	6.30509	3.60366
C	3.64025	-3.78306	3.60366
C	-0.72805	3.78306	3.60366
C	3.64025	-1.26102	3.60366
C	-0.72805	1.26102	3.60366
C	3.64025	1.26102	3.60366
C	-0.72805	-1.26102	3.60366
C	3.64025	3.78306	3.60366
C	-0.72805	-3.78306	3.60366
C	3.64025	6.30509	3.60366
C	-0.72805	-6.30509	3.60366
C	3.64025	8.82713	3.60366
C	-0.72805	-8.82713	3.60366
C	5.8244	-7.56611	3.60366
C	-2.9122	7.56611	3.60366
C	5.8244	-5.04408	3.60366
C	-2.9122	5.04408	3.60366
C	5.8244	-2.52204	3.60366
C	-2.9122	2.52204	3.60366
C	5.8244	0	3.60366
C	-2.9122	0	3.60366
C	5.8244	2.52204	3.60366
C	-2.9122	-2.52204	3.60366
C	5.8244	5.04408	3.60366
C	-2.9122	-5.04408	3.60366
C	5.8244	7.56611	3.60366
C	-2.9122	-7.56611	3.60366
C	8.00855	-6.30509	3.60366
C	-5.09635	6.30509	3.60366
C	8.00855	-3.78306	3.60366
C	-5.09635	3.78306	3.60366
C	8.00855	-1.26102	3.60366
C	-5.09635	1.26102	3.60366
C	8.00855	1.26102	3.60366
C	-5.09635	-1.26102	3.60366
C	8.00855	3.78306	3.60366
C	-5.09635	-3.78306	3.60366
C	8.00855	6.30509	3.60366
C	-5.09635	-6.30509	3.60366
C	10.1927	-5.04408	3.60366
C	-7.2805	5.04408	3.60366
C	10.1927	-2.52204	3.60366
C	-7.2805	2.52204	3.60366
C	10.1927	0	3.60366
C	-7.2805	0	3.60366
C	10.1927	2.52204	3.60366
C	-7.2805	-2.52204	3.60366
C	10.1927	5.04408	3.60366
C	-7.2805	-5.04408	3.60366
