918
ver.01
C	-5	-3	0
C	-5	-1	-2
C	-5	-2	-1
C	-5	-1	0
C	-5	-2	1
C	-5	-1	2
C	-5	0	-3
C	-5	1	-2
C	-5	0	-1
C	-6	0	0
C	-5	1	0
C	-5	0	1
C	-5	1	2
C	-5	0	3
C	-5	2	-1
C	-5	3	0
C	-5	2	1
C	-3	-5	0
C	-3	-3	-4
C	-3	-4	-3
C	-4	-3	-3
C	-4	-4	-2
C	-3	-3	-2
C	-3	-4	-1
C	-4	-3	-1
C	-4	-4	0
C	-3	-3	0
C	-3	-4	1
C	-4	-3	1
C	-4	-4	2
C	-3	-3	2
C	-3	-4	3
C	-4	-3	3
C	-3	-3	4
C	-4	-2	-4
C	-3	-1	-4
C	-3	-2	-3
C	-4	-1	-3
C	-4	-2	-2
C	-3	-1	-2
C	-3	-2	-1
C	-4	-1	-1
C	-4	-2	0
C	-3	-1	0
C	-3	-2	1
C	-4	-1	1
C	-4	-2	2
C	-3	-1	2
C	-3	-2	3
C	-4	-1	3
C	-4	-2	4
C	-3	-1	4
C	-3	0	-5
C	-4	0	-4
C	-3	1	-4
C	-3	0	-3
C	-4	1	-3
C	-4	0	-2
C	-3	1	-2
C	-3	0	-1
C	-4	1	-1
C	-4	0	0
C	-3	1	0
C	-3	0	1
C	-4	1	1
C	-4	0	2
C	-3	1	2
C	-3	0	3
C	-4	1	3
C	-4	0	4
C	-3	1	4
C	-3	0	5
C	-4	2	-4
C	-3	3	-4
C	-3	2	-3
C	-4	3	-3
C	-4	2	-2
C	-3	3	-2
C	-3	2	-1
C	-4	3	-1
C	-4	2	0
C	-3	3	0
C	-3	2	1
C	-4	3	1
C	-4	2	2
C	-3	3	2
C	-3	2	3
C	-4	3	3
C	-4	2	4
C	-3	3	4
C	-3	4	-3
C	-4	4	-2
C	-3	4	-1
C	-4	4	0
C	-3	5	0
C	-3	4	1
C	-4	4	2
C	-3	4	3
C	-1	-5	-2
C	-2	-5	-1
C	-1	-5	0
C	-2	-5	1
C	-1	-5	2
C	-2	-4	-4
C	-1	-3	-4
C	-1	-4	-3
C	-2	-3	-3
C	-2	-4	-2
C	-1	-3	-2
C	-1	-4	-1
C	-2	-3	-1
C	-2	-4	0
C	-1	-3	0
C	-1	-4	1
C	-2	-3	1
C	-2	-4	2
C	-1	-3	2
C	-1	-4	3
C	-2	-3	3
C	-2	-4	4
C	-1	-3	4
C	-1	-2	-5
C	-2	-1	-5
C	-2	-2	-4
C	-1	-1	-4
C	-1	-2	-3
C	-2	-1	-3
C	-2	-2	-2
C	-1	-1	-2
C	-1	-2	-1
C	-2	-1	-1
C	-2	-2	0
C	-1	-1	0
C	-1	-2	1
C	-2	-1	1
C	-2	-2	2
C	-1	-1	2
C	-1	-2	3
C	-2	-1	3
C	-2	-2	4
C	-1	-1	4
C	-1	-2	5
C	-2	-1	5
C	-1	0	-5
C	-2	1	-5
C	-2	0	-4
C	-1	1	-4
C	-1	0	-3
C	-2	1	-3
C	-2	0	-2
C	-1	1	-2
C	-1	0	-1
C	-2	1	-1
C	-2	0	0
C	-1	1	0
C	-1	0	1
C	-2	1	1
C	-2	0	2
C	-1	1	2
C	-1	0	3
C	-2	1	3
C	-2	0	4
C	-1	1	4
C	-1	0	5
C	-2	1	5
C	-1	2	-5
C	-2	2	-4
C	-1	3	-4
C	-1	2	-3
C	-2	3	-3
C	-2	2	-2
C	-1	3	-2
C	-1	2	-1
C	-2	3	-1
C	-2	2	0
C	-1	3	0
C	-1	2	1
C	-2	3	1
C	-2	2	2
C	-1	3	2
C	-1	2	3
C	-2	3	3
C	-2	2	4
C	-1	3	4
C	-1	2	5
C	-2	4	-4
C	-1	4	-3
C	-2	4	-2
C	-1	5	-2
C	-1	4	-1
C	-2	5	-1
C	-2	4	0
C	-1	5	0
C	-1	4	1
C	-2	5	1
C	-2	4	2
C	-1	5	2
C	-1	4	3
C	-2	4	4
C	0	-5	-3
C	1	-5	-2
C	0	-5	-1
C	0	-6	0
C	1	-5	0
C	0	-5	1
C	1	-5	2
C	0	-5	3
C	0	-3	-5
C	0	-4	-4
C	1	-3	-4
C	1	-4	-3
C	0	-3	-3
C	0	-4	-2
C	1	-3	-2
C	1	-4	-1
C	0	-3	-1
C	0	-4	0
C	1	-3	0
C	1	-4	1
C	0	-3	1
C	0	-4	2
C	1	-3	2
C	1	-4	3
C	0	-3	3
C	0	-4	4
C	1	-3	4
C	0	-3	5
C	1	-2	-5
C	0	-1	-5
C	0	-2	-4
C	1	-1	-4
C	1	-2	-3
C	0	-1	-3
C	0	-2	-2
C	1	-1	-2
C	1	-2	-1
C	0	-1	-1
C	0	-2	0
C	1	-1	0
C	1	-2	1
C	0	-1	1
C	0	-2	2
C	1	-1	2
C	1	-2	3
C	0	-1	3
C	0	-2	4
C	1	-1	4
C	1	-2	5
C	0	-1	5
C	0	0	-6
C	1	0	-5
C	0	1	-5
C	0	0	-4
C	1	1	-4
C	1	0	-3
C	0	1	-3
C	0	0	-2
C	1	1	-2
C	1	0	-1
C	0	1	-1
C	0	0	0
C	1	1	0
C	1	0	1
C	0	1	1
C	0	0	2
C	1	1	2
C	1	0	3
C	0	1	3
C	0	0	4
C	1	1	4
C	1	0	5
C	0	1	5
C	0	0	6
C	1	2	-5
C	0	3	-5
C	0	2	-4
C	1	3	-4
C	1	2	-3
C	0	3	-3
C	0	2	-2
C	1	3	-2
C	1	2	-1
C	0	3	-1
C	0	2	0
C	1	3	0
C	1	2	1
C	0	3	1
C	0	2	2
C	1	3	2
C	1	2	3
C	0	3	3
C	0	2	4
C	1	3	4
C	1	2	5
C	0	3	5
C	0	4	-4
C	1	4	-3
C	0	5	-3
C	0	4	-2
C	1	5	-2
C	1	4	-1
C	0	5	-1
C	0	4	0
C	1	5	0
C	1	4	1
C	0	5	1
C	0	4	2
C	1	5	2
C	1	4	3
C	0	5	3
C	0	4	4
C	0	6	0
C	2	-5	-1
C	3	-5	0
C	2	-5	1
C	2	-4	-4
C	3	-3	-4
C	3	-4	-3
C	2	-3	-3
C	2	-4	-2
C	3	-3	-2
C	3	-4	-1
C	2	-3	-1
C	2	-4	0
C	3	-3	0
C	3	-4	1
C	2	-3	1
C	2	-4	2
C	3	-3	2
C	3	-4	3
C	2	-3	3
C	2	-4	4
C	3	-3	4
C	2	-1	-5
C	2	-2	-4
C	3	-1	-4
C	3	-2	-3
C	2	-1	-3
C	2	-2	-2
C	3	-1	-2
C	3	-2	-1
C	2	-1	-1
C	2	-2	0
C	3	-1	0
C	3	-2	1
C	2	-1	1
C	2	-2	2
C	3	-1	2
C	3	-2	3
C	2	-1	3
C	2	-2	4
C	3	-1	4
C	2	-1	5
C	3	0	-5
C	2	1	-5
C	2	0	-4
C	3	1	-4
C	3	0	-3
C	2	1	-3
C	2	0	-2
C	3	1	-2
C	3	0	-1
C	2	1	-1
C	2	0	0
C	3	1	0
C	3	0	1
C	2	1	1
C	2	0	2
C	3	1	2
C	3	0	3
C	2	1	3
C	2	0	4
C	3	1	4
C	3	0	5
C	2	1	5
C	2	2	-4
C	3	3	-4
C	3	2	-3
C	2	3	-3
C	2	2	-2
C	3	3	-2
C	3	2	-1
C	2	3	-1
C	2	2	0
C	3	3	0
C	3	2	1
C	2	3	1
C	2	2	2
C	3	3	2
C	3	2	3
C	2	3	3
C	2	2	4
C	3	3	4
C	2	4	-4
C	3	4	-3
C	2	4	-2
C	3	4	-1
C	2	5	-1
C	2	4	0
C	3	5	0
C	3	4	1
C	2	5	1
C	2	4	2
C	3	4	3
C	2	4	4
C	4	-3	-3
C	4	-4	-2
C	4	-3	-1
C	4	-4	0
C	5	-3	0
C	4	-3	1
C	4	-4	2
C	4	-3	3
C	4	-2	-4
C	4	-1	-3
C	4	-2	-2
C	5	-1	-2
C	5	-2	-1
C	4	-1	-1
C	4	-2	0
C	5	-1	0
C	5	-2	1
C	4	-1	1
C	4	-2	2
C	5	-1	2
C	4	-1	3
C	4	-2	4
C	4	0	-4
C	5	0	-3
C	4	1	-3
C	4	0	-2
C	5	1	-2
C	5	0	-1
C	4	1	-1
C	4	0	0
C	5	1	0
C	5	0	1
C	4	1	1
C	4	0	2
C	5	1	2
C	5	0	3
C	4	1	3
C	4	0	4
C	4	2	-4
C	4	3	-3
C	4	2	-2
C	5	2	-1
C	4	3	-1
C	4	2	0
C	5	3	0
C	5	2	1
C	4	3	1
C	4	2	2
C	4	3	3
C	4	2	4
C	4	4	-2
C	4	4	0
C	4	4	2
C	6	0	0
C	-4.5	-2.5	0.5
C	-4.5	-0.5	-1.5
C	-4.5	-1.5	-0.5
C	-4.5	-0.5	0.5
C	-4.5	-1.5	1.5
C	-4.5	-0.5	2.5
C	-4.5	0.5	-2.5
C	-4.5	1.5	-1.5
C	-4.5	0.5	-0.5
C	-5.5	0.5	0.5
C	-4.5	1.5	0.5
C	-4.5	0.5	1.5
C	-4.5	1.5	2.5
C	-4.5	0.5	3.5
C	-4.5	2.5	-0.5
C	-4.5	3.5	0.5
C	-4.5	2.5	1.5
C	-2.5	-4.5	0.5
C	-2.5	-2.5	-3.5
C	-2.5	-3.5	-2.5
C	-3.5	-2.5	-2.5
C	-3.5	-3.5	-1.5
C	-2.5	-2.5	-1.5
C	-2.5	-3.5	-0.5
C	-3.5	-2.5	-0.5
C	-3.5	-3.5	0.5
C	-2.5	-2.5	0.5
C	-2.5	-3.5	1.5
C	-3.5	-2.5	1.5
C	-3.5	-3.5	2.5
C	-2.5	-2.5	2.5
C	-2.5	-3.5	3.5
C	-3.5	-2.5	3.5
C	-2.5	-2.5	4.5
C	-3.5	-1.5	-3.5
C	-2.5	-0.5	-3.5
C	-2.5	-1.5	-2.5
C	-3.5	-0.5	-2.5
C	-3.5	-1.5	-1.5
C	-2.5	-0.5	-1.5
C	-2.5	-1.5	-0.5
C	-3.5	-0.5	-0.5
C	-3.5	-1.5	0.5
C	-2.5	-0.5	0.5
C	-2.5	-1.5	1.5
C	-3.5	-0.5	1.5
C	-3.5	-1.5	2.5
C	-2.5	-0.5	2.5
C	-2.5	-1.5	3.5
C	-3.5	-0.5	3.5
C	-3.5	-1.5	4.5
C	-2.5	-0.5	4.5
C	-2.5	0.5	-4.5
C	-3.5	0.5	-3.5
C	-2.5	1.5	-3.5
C	-2.5	0.5	-2.5
C	-3.5	1.5	-2.5
C	-3.5	0.5	-1.5
C	-2.5	1.5	-1.5
C	-2.5	0.5	-0.5
C	-3.5	1.5	-0.5
C	-3.5	0.5	0.5
C	-2.5	1.5	0.5
C	-2.5	0.5	1.5
C	-3.5	1.5	1.5
C	-3.5	0.5	2.5
C	-2.5	1.5	2.5
C	-2.5	0.5	3.5
C	-3.5	1.5	3.5
C	-3.5	0.5	4.5
C	-2.5	1.5	4.5
C	-2.5	0.5	5.5
C	-3.5	2.5	-3.5
C	-2.5	3.5	-3.5
C	-2.5	2.5	-2.5
C	-3.5	3.5	-2.5
C	-3.5	2.5	-1.5
C	-2.5	3.5	-1.5
C	-2.5	2.5	-0.5
C	-3.5	3.5	-0.5
C	-3.5	2.5	0.5
C	-2.5	3.5	0.5
C	-2.5	2.5	1.5
C	-3.5	3.5	1.5
C	-3.5	2.5	2.5
C	-2.5	3.5	2.5
C	-2.5	2.5	3.5
C	-3.5	3.5	3.5
C	-3.5	2.5	4.5
C	-2.5	3.5	4.5
C	-2.5	4.5	-2.5
C	-3.5	4.5	-1.5
C	-2.5	4.5	-0.5
C	-3.5	4.5	0.5
C	-2.5	5.5	0.5
C	-2.5	4.5	1.5
C	-3.5	4.5	2.5
C	-2.5	4.5	3.5
C	-0.5	-4.5	-1.5
C	-1.5	-4.5	-0.5
C	-0.5	-4.5	0.5
C	-1.5	-4.5	1.5
C	-0.5	-4.5	2.5
C	-1.5	-3.5	-3.5
C	-0.5	-2.5	-3.5
C	-0.5	-3.5	-2.5
C	-1.5	-2.5	-2.5
C	-1.5	-3.5	-1.5
C	-0.5	-2.5	-1.5
C	-0.5	-3.5	-0.5
C	-1.5	-2.5	-0.5
C	-1.5	-3.5	0.5
C	-0.5	-2.5	0.5
C	-0.5	-3.5	1.5
C	-1.5	-2.5	1.5
C	-1.5	-3.5	2.5
C	-0.5	-2.5	2.5
C	-0.5	-3.5	3.5
C	-1.5	-2.5	3.5
C	-1.5	-3.5	4.5
C	-0.5	-2.5	4.5
C	-0.5	-1.5	-4.5
C	-1.5	-0.5	-4.5
C	-1.5	-1.5	-3.5
C	-0.5	-0.5	-3.5
C	-0.5	-1.5	-2.5
C	-1.5	-0.5	-2.5
C	-1.5	-1.5	-1.5
C	-0.5	-0.5	-1.5
C	-0.5	-1.5	-0.5
C	-1.5	-0.5	-0.5
C	-1.5	-1.5	0.5
C	-0.5	-0.5	0.5
C	-0.5	-1.5	1.5
C	-1.5	-0.5	1.5
C	-1.5	-1.5	2.5
C	-0.5	-0.5	2.5
C	-0.5	-1.5	3.5
C	-1.5	-0.5	3.5
C	-1.5	-1.5	4.5
C	-0.5	-0.5	4.5
C	-0.5	-1.5	5.5
C	-1.5	-0.5	5.5
C	-0.5	0.5	-4.5
C	-1.5	1.5	-4.5
C	-1.5	0.5	-3.5
C	-0.5	1.5	-3.5
C	-0.5	0.5	-2.5
C	-1.5	1.5	-2.5
C	-1.5	0.5	-1.5
C	-0.5	1.5	-1.5
C	-0.5	0.5	-0.5
C	-1.5	1.5	-0.5
C	-1.5	0.5	0.5
C	-0.5	1.5	0.5
C	-0.5	0.5	1.5
C	-1.5	1.5	1.5
C	-1.5	0.5	2.5
C	-0.5	1.5	2.5
C	-0.5	0.5	3.5
C	-1.5	1.5	3.5
C	-1.5	0.5	4.5
C	-0.5	1.5	4.5
C	-0.5	0.5	5.5
C	-1.5	1.5	5.5
C	-0.5	2.5	-4.5
C	-1.5	2.5	-3.5
C	-0.5	3.5	-3.5
C	-0.5	2.5	-2.5
C	-1.5	3.5	-2.5
C	-1.5	2.5	-1.5
C	-0.5	3.5	-1.5
C	-0.5	2.5	-0.5
C	-1.5	3.5	-0.5
C	-1.5	2.5	0.5
C	-0.5	3.5	0.5
C	-0.5	2.5	1.5
C	-1.5	3.5	1.5
C	-1.5	2.5	2.5
C	-0.5	3.5	2.5
C	-0.5	2.5	3.5
C	-1.5	3.5	3.5
C	-1.5	2.5	4.5
C	-0.5	3.5	4.5
C	-0.5	2.5	5.5
C	-1.5	4.5	-3.5
C	-0.5	4.5	-2.5
C	-1.5	4.5	-1.5
C	-0.5	5.5	-1.5
C	-0.5	4.5	-0.5
C	-1.5	5.5	-0.5
C	-1.5	4.5	0.5
C	-0.5	5.5	0.5
C	-0.5	4.5	1.5
C	-1.5	5.5	1.5
C	-1.5	4.5	2.5
C	-0.5	5.5	2.5
C	-0.5	4.5	3.5
C	-1.5	4.5	4.5
C	0.5	-4.5	-2.5
C	1.5	-4.5	-1.5
C	0.5	-4.5	-0.5
C	0.5	-5.5	0.5
C	1.5	-4.5	0.5
C	0.5	-4.5	1.5
C	1.5	-4.5	2.5
C	0.5	-4.5	3.5
C	0.5	-2.5	-4.5
C	0.5	-3.5	-3.5
C	1.5	-2.5	-3.5
C	1.5	-3.5	-2.5
C	0.5	-2.5	-2.5
C	0.5	-3.5	-1.5
C	1.5	-2.5	-1.5
C	1.5	-3.5	-0.5
C	0.5	-2.5	-0.5
C	0.5	-3.5	0.5
C	1.5	-2.5	0.5
C	1.5	-3.5	1.5
C	0.5	-2.5	1.5
C	0.5	-3.5	2.5
C	1.5	-2.5	2.5
C	1.5	-3.5	3.5
C	0.5	-2.5	3.5
C	0.5	-3.5	4.5
C	1.5	-2.5	4.5
C	0.5	-2.5	5.5
C	1.5	-1.5	-4.5
C	0.5	-0.5	-4.5
C	0.5	-1.5	-3.5
C	1.5	-0.5	-3.5
C	1.5	-1.5	-2.5
C	0.5	-0.5	-2.5
C	0.5	-1.5	-1.5
C	1.5	-0.5	-1.5
C	1.5	-1.5	-0.5
C	0.5	-0.5	-0.5
C	0.5	-1.5	0.5
C	1.5	-0.5	0.5
C	1.5	-1.5	1.5
C	0.5	-0.5	1.5
C	0.5	-1.5	2.5
C	1.5	-0.5	2.5
C	1.5	-1.5	3.5
C	0.5	-0.5	3.5
C	0.5	-1.5	4.5
C	1.5	-0.5	4.5
C	1.5	-1.5	5.5
C	0.5	-0.5	5.5
C	0.5	0.5	-5.5
C	1.5	0.5	-4.5
C	0.5	1.5	-4.5
C	0.5	0.5	-3.5
C	1.5	1.5	-3.5
C	1.5	0.5	-2.5
C	0.5	1.5	-2.5
C	0.5	0.5	-1.5
C	1.5	1.5	-1.5
C	1.5	0.5	-0.5
C	0.5	1.5	-0.5
C	0.5	0.5	0.5
C	1.5	1.5	0.5
C	1.5	0.5	1.5
C	0.5	1.5	1.5
C	0.5	0.5	2.5
C	1.5	1.5	2.5
C	1.5	0.5	3.5
C	0.5	1.5	3.5
C	0.5	0.5	4.5
C	1.5	1.5	4.5
C	1.5	0.5	5.5
C	0.5	1.5	5.5
C	0.5	0.5	6.5
C	1.5	2.5	-4.5
C	0.5	3.5	-4.5
C	0.5	2.5	-3.5
C	1.5	3.5	-3.5
C	1.5	2.5	-2.5
C	0.5	3.5	-2.5
C	0.5	2.5	-1.5
C	1.5	3.5	-1.5
C	1.5	2.5	-0.5
C	0.5	3.5	-0.5
C	0.5	2.5	0.5
C	1.5	3.5	0.5
C	1.5	2.5	1.5
C	0.5	3.5	1.5
C	0.5	2.5	2.5
C	1.5	3.5	2.5
C	1.5	2.5	3.5
C	0.5	3.5	3.5
C	0.5	2.5	4.5
C	1.5	3.5	4.5
C	1.5	2.5	5.5
C	0.5	3.5	5.5
C	0.5	4.5	-3.5
C	1.5	4.5	-2.5
C	0.5	5.5	-2.5
C	0.5	4.5	-1.5
C	1.5	5.5	-1.5
C	1.5	4.5	-0.5
C	0.5	5.5	-0.5
C	0.5	4.5	0.5
C	1.5	5.5	0.5
C	1.5	4.5	1.5
C	0.5	5.5	1.5
C	0.5	4.5	2.5
C	1.5	5.5	2.5
C	1.5	4.5	3.5
C	0.5	5.5	3.5
C	0.5	4.5	4.5
C	0.5	6.5	0.5
C	2.5	-4.5	-0.5
C	3.5	-4.5	0.5
C	2.5	-4.5	1.5
C	2.5	-3.5	-3.5
C	3.5	-2.5	-3.5
C	3.5	-3.5	-2.5
C	2.5	-2.5	-2.5
C	2.5	-3.5	-1.5
C	3.5	-2.5	-1.5
C	3.5	-3.5	-0.5
C	2.5	-2.5	-0.5
C	2.5	-3.5	0.5
C	3.5	-2.5	0.5
C	3.5	-3.5	1.5
C	2.5	-2.5	1.5
C	2.5	-3.5	2.5
C	3.5	-2.5	2.5
C	3.5	-3.5	3.5
C	2.5	-2.5	3.5
C	2.5	-3.5	4.5
C	3.5	-2.5	4.5
C	2.5	-0.5	-4.5
C	2.5	-1.5	-3.5
C	3.5	-0.5	-3.5
C	3.5	-1.5	-2.5
C	2.5	-0.5	-2.5
C	2.5	-1.5	-1.5
C	3.5	-0.5	-1.5
C	3.5	-1.5	-0.5
C	2.5	-0.5	-0.5
C	2.5	-1.5	0.5
C	3.5	-0.5	0.5
C	3.5	-1.5	1.5
C	2.5	-0.5	1.5
C	2.5	-1.5	2.5
C	3.5	-0.5	2.5
C	3.5	-1.5	3.5
C	2.5	-0.5	3.5
C	2.5	-1.5	4.5
C	3.5	-0.5	4.5
C	2.5	-0.5	5.5
C	3.5	0.5	-4.5
C	2.5	1.5	-4.5
C	2.5	0.5	-3.5
C	3.5	1.5	-3.5
C	3.5	0.5	-2.5
C	2.5	1.5	-2.5
C	2.5	0.5	-1.5
C	3.5	1.5	-1.5
C	3.5	0.5	-0.5
C	2.5	1.5	-0.5
C	2.5	0.5	0.5
C	3.5	1.5	0.5
C	3.5	0.5	1.5
C	2.5	1.5	1.5
C	2.5	0.5	2.5
C	3.5	1.5	2.5
C	3.5	0.5	3.5
C	2.5	1.5	3.5
C	2.5	0.5	4.5
C	3.5	1.5	4.5
C	3.5	0.5	5.5
C	2.5	1.5	5.5
C	2.5	2.5	-3.5
C	3.5	3.5	-3.5
C	3.5	2.5	-2.5
C	2.5	3.5	-2.5
C	2.5	2.5	-1.5
C	3.5	3.5	-1.5
C	3.5	2.5	-0.5
C	2.5	3.5	-0.5
C	2.5	2.5	0.5
C	3.5	3.5	0.5
C	3.5	2.5	1.5
C	2.5	3.5	1.5
C	2.5	2.5	2.5
C	3.5	3.5	2.5
C	3.5	2.5	3.5
C	2.5	3.5	3.5
C	2.5	2.5	4.5
C	3.5	3.5	4.5
C	2.5	4.5	-3.5
C	3.5	4.5	-2.5
C	2.5	4.5	-1.5
C	3.5	4.5	-0.5
C	2.5	5.5	-0.5
C	2.5	4.5	0.5
C	3.5	5.5	0.5
C	3.5	4.5	1.5
C	2.5	5.5	1.5
C	2.5	4.5	2.5
C	3.5	4.5	3.5
C	2.5	4.5	4.5
C	4.5	-2.5	-2.5
C	4.5	-3.5	-1.5
C	4.5	-2.5	-0.5
C	4.5	-3.5	0.5
C	5.5	-2.5	0.5
C	4.5	-2.5	1.5
C	4.5	-3.5	2.5
C	4.5	-2.5	3.5
C	4.5	-1.5	-3.5
C	4.5	-0.5	-2.5
C	4.5	-1.5	-1.5
C	5.5	-0.5	-1.5
C	5.5	-1.5	-0.5
C	4.5	-0.5	-0.5
C	4.5	-1.5	0.5
C	5.5	-0.5	0.5
C	5.5	-1.5	1.5
C	4.5	-0.5	1.5
C	4.5	-1.5	2.5
C	5.5	-0.5	2.5
C	4.5	-0.5	3.5
C	4.5	-1.5	4.5
C	4.5	0.5	-3.5
C	5.5	0.5	-2.5
C	4.5	1.5	-2.5
C	4.5	0.5	-1.5
C	5.5	1.5	-1.5
C	5.5	0.5	-0.5
C	4.5	1.5	-0.5
C	4.5	0.5	0.5
C	5.5	1.5	0.5
C	5.5	0.5	1.5
C	4.5	1.5	1.5
C	4.5	0.5	2.5
C	5.5	1.5	2.5
C	5.5	0.5	3.5
C	4.5	1.5	3.5
C	4.5	0.5	4.5
C	4.5	2.5	-3.5
C	4.5	3.5	-2.5
C	4.5	2.5	-1.5
C	5.5	2.5	-0.5
C	4.5	3.5	-0.5
C	4.5	2.5	0.5
C	5.5	3.5	0.5
C	5.5	2.5	1.5
C	4.5	3.5	1.5
C	4.5	2.5	2.5
C	4.5	3.5	3.5
C	4.5	2.5	4.5
C	4.5	4.5	-1.5
C	4.5	4.5	0.5
C	4.5	4.5	2.5
C	6.5	0.5	0.5
